28

N         -3.55741        1.98069        0.06936
H         -2.51901        1.91616        0.11845
H         -3.95871        1.08354       -0.27901
H         -3.75787        2.65942       -0.68343
N          3.03574        1.53886        0.00375
H          4.07996        1.51259       -0.00050
H          2.70026        0.89632        0.75579
H          2.70029        1.16553       -0.91224
N         -1.57878        4.29845        0.02883
H         -0.53840        4.27096        0.02690
H         -1.78251        3.54738       -0.63495
H         -1.92235        5.10133       -0.53413
N         -2.12693       -1.58725        0.00425
C         -1.25439       -2.55620        0.00269
C         -2.06788       -3.67539        0.00263
N         -3.61504       -3.47222        0.01001
C         -3.45152       -2.01921        0.02338
H         -3.96414       -1.59146        0.92554
H         -0.16627       -2.28714       -0.00006
H         -1.39712       -4.55643        0.00085
C         -1.85117       -0.25490       -0.00203
H         -0.79202        0.01229        0.01254
H         -2.35571        0.05834        0.94674
H         -2.29424        0.04368       -0.98101
C         -4.01154       -4.89836       -0.00542
H         -3.36610       -5.78971       -0.00671
H         -4.72896       -5.04984       -0.87164
H         -4.72387       -5.05546        0.86572
